Version 4
SHEET 1 888 820
WIRE -384 160 -496 160
WIRE -224 160 -384 160
WIRE -128 160 -224 160
WIRE -96 160 -128 160
WIRE 32 160 0 160
WIRE 48 160 32 160
WIRE 144 160 48 160
WIRE 272 160 144 160
WIRE 416 160 272 160
WIRE 592 160 496 160
WIRE -496 192 -496 160
WIRE -224 192 -224 160
WIRE 144 192 144 160
WIRE 272 192 272 160
WIRE 592 192 592 160
WIRE 32 208 32 160
WIRE 432 240 432 208
WIRE 432 240 416 240
WIRE 480 240 480 208
WIRE 496 240 480 240
WIRE -384 272 -384 160
WIRE -496 304 -496 272
WIRE -224 304 -224 272
WIRE -112 304 -224 304
WIRE -80 304 -80 208
WIRE -80 304 -112 304
WIRE -64 304 -80 304
WIRE 32 304 32 272
WIRE 32 304 16 304
WIRE 144 304 144 256
WIRE 272 304 272 272
WIRE 592 304 592 272
WIRE 416 320 416 240
WIRE 416 320 368 320
WIRE 496 320 496 240
WIRE -224 352 -224 304
WIRE -496 416 -496 384
WIRE -384 448 -384 352
WIRE -304 448 -384 448
WIRE -224 448 -224 432
WIRE -224 448 -304 448
WIRE -224 480 -224 448
WIRE -96 480 -176 480
WIRE -176 496 -176 480
WIRE -176 560 -176 544
WIRE -96 560 -176 560
WIRE -224 608 -224 560
FLAG 592 304 0
FLAG 368 320 0
FLAG 144 304 0
FLAG -224 608 0
FLAG 272 304 0
FLAG 48 160 drain
FLAG -112 304 gate
FLAG -304 448 VBUS_EN
FLAG -496 416 0
FLAG -128 160 source
SYMBOL cap 128 192 R0
WINDOW 0 46 25 Left 2
SYMATTR InstName C1
SYMATTR Value 94µF
SYMBOL voltage -496 176 R0
WINDOW 123 0 0 Left 0
WINDOW 39 0 0 Left 0
SYMATTR InstName V1
SYMATTR Value 5
SYMBOL sw 400 160 R270
SYMATTR InstName S1
SYMATTR Value SW_1
SYMBOL voltage 512 320 R90
WINDOW 0 -32 56 VBottom 2
WINDOW 3 35 85 VTop 2
WINDOW 123 0 0 Left 0
WINDOW 39 0 0 Left 0
SYMATTR InstName V2
SYMATTR Value PULSE(0 10 0.03 0 0 0.0005 0.001 30)
SYMBOL res 576 176 R0
SYMATTR InstName R1
SYMATTR Value 13.3
SYMBOL pmos 0 208 M270
SYMATTR InstName M1
SYMATTR Value SP8J5
SYMBOL res -240 176 R0
SYMATTR InstName R2
SYMATTR Value 51k
SYMBOL res -240 336 R0
SYMATTR InstName R3
SYMATTR Value 100k
SYMBOL sw -224 576 R180
SYMATTR InstName S2
SYMATTR Value SW_2
SYMBOL voltage -96 464 R0
WINDOW 0 -32 56 VBottom 2
WINDOW 3 41 182 VTop 2
WINDOW 123 0 0 Left 0
WINDOW 39 0 0 Left 0
SYMATTR InstName V3
SYMATTR Value PULSE(0 10 0.01 0 0 10 10 1)
SYMBOL res -400 256 R0
SYMATTR InstName R5
SYMATTR Value 1k
SYMBOL res 256 176 R0
SYMATTR InstName R6
SYMATTR Value 800
SYMBOL cap 16 208 R0
SYMATTR InstName C3
SYMATTR Value 100nF
SYMBOL voltage -496 288 R0
WINDOW 3 -62 -7 VRight 2
WINDOW 123 0 0 Left 0
WINDOW 39 0 0 Left 0
SYMATTR Value PULSE(0 15 0.005 0.0005 0 10 10 1)
SYMATTR InstName V4
SYMBOL res 32 288 R90
WINDOW 0 0 56 VBottom 2
WINDOW 3 32 56 VTop 2
SYMATTR InstName R4
SYMATTR Value 100
TEXT 448 464 Left 2 !.tran 0 0.05 0 uic
TEXT 104 496 Left 2 !.model SW_1 SW(Ron=1m Roff=100Meg Vt=5)
TEXT 104 536 Left 2 !.model SW_2 SW(Ron=1m Roff=100Meg Vt=5)
